Version 4
SHEET 1 1896 864
WIRE -544 -512 -1264 -512
WIRE 80 -512 -544 -512
WIRE 768 -512 80 -512
WIRE -400 -384 -512 -384
WIRE 224 -384 112 -384
WIRE 880 -384 800 -384
WIRE 112 -336 112 -384
WIRE 160 -336 112 -336
WIRE 800 -336 800 -384
WIRE 832 -336 800 -336
WIRE 880 -336 880 -384
WIRE -128 -320 -192 -320
WIRE 224 -320 224 -384
WIRE 560 -320 496 -320
WIRE 768 -320 768 -512
WIRE -512 -304 -512 -384
WIRE -480 -304 -512 -304
WIRE -400 -304 -400 -384
WIRE 80 -304 80 -512
WIRE 800 -304 800 -336
WIRE -752 -288 -832 -288
WIRE -544 -288 -544 -512
WIRE -192 -288 -192 -320
WIRE 112 -288 112 -336
WIRE 496 -288 496 -320
WIRE -512 -272 -512 -304
WIRE -832 -256 -832 -288
WIRE 640 -240 640 -320
WIRE 720 -240 640 -240
WIRE 832 -240 832 -336
WIRE 832 -240 800 -240
WIRE -48 -224 -48 -320
WIRE 32 -224 -48 -224
WIRE 160 -224 160 -336
WIRE 160 -224 112 -224
WIRE 880 -224 880 -256
WIRE -672 -208 -672 -288
WIRE -592 -208 -672 -208
WIRE -480 -208 -480 -304
WIRE -480 -208 -512 -208
WIRE 224 -208 224 -240
WIRE -400 -192 -400 -224
WIRE -192 -192 -192 -208
WIRE 80 -192 -192 -192
WIRE 496 -192 496 -208
WIRE 768 -192 768 -208
WIRE 768 -192 496 -192
WIRE 784 -192 768 -192
WIRE -544 -176 -832 -176
WIRE 784 -112 784 -192
WIRE 1088 -112 784 -112
WIRE -1264 -48 -1264 -512
WIRE -544 -48 -544 -176
WIRE -336 -48 -544 -48
WIRE 80 -48 80 -192
WIRE 368 -48 80 -48
WIRE -400 0 -512 0
WIRE 928 16 816 16
WIRE 224 32 112 32
WIRE -512 80 -512 0
WIRE -480 80 -512 80
WIRE -400 80 -400 0
WIRE -752 96 -832 96
WIRE -544 96 -544 -48
WIRE 816 96 816 16
WIRE 848 96 816 96
WIRE 928 96 928 16
WIRE -512 112 -512 80
WIRE 112 112 112 32
WIRE 144 112 112 112
WIRE 224 112 224 32
WIRE 576 112 496 112
WIRE 784 112 784 -112
WIRE -832 128 -832 96
WIRE -128 128 -208 128
WIRE 80 128 80 -48
WIRE 816 128 816 96
WIRE 112 144 112 112
WIRE 496 144 496 112
WIRE -208 160 -208 128
WIRE -672 176 -672 96
WIRE -592 176 -672 176
WIRE -480 176 -480 80
WIRE -480 176 -512 176
WIRE -400 192 -400 160
WIRE 656 192 656 112
WIRE 736 192 656 192
WIRE 848 192 848 96
WIRE 848 192 816 192
WIRE -544 208 -832 208
WIRE -48 208 -48 128
WIRE 32 208 -48 208
WIRE 144 208 144 112
WIRE 144 208 112 208
WIRE 928 208 928 176
WIRE 224 224 224 192
WIRE 784 224 496 224
WIRE 80 240 -208 240
WIRE -1264 384 -1264 32
WIRE -960 384 -1264 384
WIRE -544 384 -544 208
WIRE -544 384 -960 384
WIRE 80 384 80 240
WIRE 80 384 -544 384
WIRE 784 384 784 224
WIRE 784 384 80 384
WIRE -960 416 -960 384
WIRE 368 496 368 -48
WIRE 368 624 368 576
WIRE -336 768 -336 -48
WIRE -16 768 -336 768
WIRE 160 768 64 768
WIRE 368 768 368 704
WIRE 368 768 240 768
WIRE 480 768 368 768
WIRE 704 768 560 768
WIRE 1088 768 1088 -112
WIRE 1088 768 784 768
FLAG -400 -192 0
FLAG 224 -208 0
FLAG 880 -224 0
FLAG 224 224 0
FLAG -400 192 0
FLAG 928 208 0
FLAG -960 416 0
SYMBOL nmos_TO247_3L -592 -288 R0
WINDOW 0 -53 -17 Left 2
WINDOW 3 -66 -43 Left 2
SYMATTR InstName U1
SYMATTR Value C3M0025065D
SYMBOL nmos_TO247_3L 32 -304 R0
WINDOW 0 -63 -27 Left 2
WINDOW 3 -71 -55 Left 2
SYMATTR InstName U2
SYMATTR Value C3M0025065D
SYMBOL voltage -1264 -64 R0
WINDOW 123 0 0 Left 0
WINDOW 39 0 0 Left 0
SYMATTR InstName V1
SYMATTR Value 100
SYMBOL voltage -832 -272 R0
WINDOW 3 -61 153 Left 2
WINDOW 123 0 0 Left 0
WINDOW 39 -58 185 Left 2
SYMATTR Value PULSE(-3 15 {T_dly1} 10n 10n {T_on} {T_cyc})
SYMATTR SpiceLine Rser=1m Cpar=1u
SYMATTR InstName V2
SYMBOL voltage -192 -304 R0
WINDOW 3 -39 123 Left 2
WINDOW 123 0 0 Left 0
WINDOW 39 -39 151 Left 2
SYMATTR Value PULSE(-3 15 {T_dly3} 10n 10n {T_on} {T_cyc})
SYMATTR SpiceLine Rser=1m Cpar=1u
SYMATTR InstName V3
SYMBOL res -656 -304 R90
WINDOW 0 0 56 VBottom 2
WINDOW 3 32 56 VTop 2
SYMATTR InstName R1
SYMATTR Value 10
SYMBOL res -32 -336 R90
WINDOW 0 0 56 VBottom 2
WINDOW 3 32 56 VTop 2
SYMATTR InstName R2
SYMATTR Value 10
SYMBOL voltage -400 -320 R0
WINDOW 123 0 0 Left 0
WINDOW 39 0 0 Left 0
SYMATTR InstName V4
SYMATTR Value 25
SYMBOL voltage 224 -336 R0
WINDOW 123 0 0 Left 0
WINDOW 39 0 0 Left 0
SYMATTR InstName V5
SYMATTR Value 25
SYMBOL ind 352 480 R0
SYMATTR InstName Lb1
SYMATTR Value 5m
SYMBOL ind -32 784 R270
WINDOW 0 32 56 VTop 2
WINDOW 3 5 56 VBottom 2
SYMATTR InstName La1
SYMATTR Value 5m
SYMBOL ind 688 784 R270
WINDOW 0 32 56 VTop 2
WINDOW 3 5 56 VBottom 2
SYMATTR InstName Lc1
SYMATTR Value 5m
SYMBOL res 352 608 R0
SYMATTR InstName Rb1
SYMATTR Value 10
SYMBOL res 256 752 R90
WINDOW 0 0 56 VBottom 2
WINDOW 3 32 56 VTop 2
SYMATTR InstName Ra1
SYMATTR Value 10
SYMBOL res 576 752 R90
WINDOW 0 0 56 VBottom 2
WINDOW 3 32 56 VTop 2
SYMATTR InstName Rc1
SYMATTR Value 10
SYMBOL nmos_TO247_3L 720 -320 R0
WINDOW 0 -27 -14 Left 2
WINDOW 3 -58 -38 Left 2
SYMATTR InstName U3
SYMATTR Value C3M0025065D
SYMBOL voltage 496 -304 R0
WINDOW 3 9 155 Left 2
WINDOW 123 0 0 Left 0
WINDOW 39 14 194 Left 2
SYMATTR Value PULSE(-3 15 {T_dly5} 10n 10n {T_on} {T_cyc})
SYMATTR SpiceLine Rser=1m Cpar=1u
SYMATTR InstName V6
SYMBOL res 656 -336 R90
WINDOW 0 0 56 VBottom 2
WINDOW 3 32 56 VTop 2
SYMATTR InstName R3
SYMATTR Value 10
SYMBOL voltage 880 -352 R0
WINDOW 123 0 0 Left 0
WINDOW 39 0 0 Left 0
SYMATTR InstName V7
SYMATTR Value 25
SYMBOL nmos_TO247_3L 32 128 R0
WINDOW 0 -53 -17 Left 2
WINDOW 3 -66 -43 Left 2
SYMATTR InstName U4
SYMATTR Value C3M0025065D
SYMBOL voltage -208 144 R0
WINDOW 3 -61 153 Left 2
WINDOW 123 0 0 Left 0
WINDOW 39 -58 185 Left 2
SYMATTR Value PULSE(-3 15 {T_dly4} 10n 10n {T_on} {T_cyc})
SYMATTR SpiceLine Rser=1m Cpar=1u
SYMATTR InstName V8
SYMBOL res -32 112 R90
WINDOW 0 0 56 VBottom 2
WINDOW 3 32 56 VTop 2
SYMATTR InstName R4
SYMATTR Value 10
SYMBOL voltage 224 96 R0
WINDOW 123 0 0 Left 0
WINDOW 39 0 0 Left 0
SYMATTR InstName V9
SYMATTR Value 25
SYMBOL nmos_TO247_3L -592 96 R0
WINDOW 0 -53 -17 Left 2
WINDOW 3 -66 -43 Left 2
SYMATTR InstName U5
SYMATTR Value C3M0025065D
SYMBOL voltage -832 112 R0
WINDOW 3 -61 153 Left 2
WINDOW 123 0 0 Left 0
WINDOW 39 -58 185 Left 2
SYMATTR Value PULSE(-3 15 {T_dly2} 10n 10n {T_on} {T_cyc})
SYMATTR SpiceLine Rser=1m Cpar=1u
SYMATTR InstName V10
SYMBOL res -656 80 R90
WINDOW 0 0 56 VBottom 2
WINDOW 3 32 56 VTop 2
SYMATTR InstName R5
SYMATTR Value 10
SYMBOL voltage -400 64 R0
WINDOW 123 0 0 Left 0
WINDOW 39 0 0 Left 0
SYMATTR InstName V11
SYMATTR Value 25
SYMBOL nmos_TO247_3L 736 112 R0
WINDOW 0 -53 -17 Left 2
WINDOW 3 -66 -43 Left 2
SYMATTR InstName U6
SYMATTR Value C3M0025065D
SYMBOL voltage 496 128 R0
WINDOW 3 -61 153 Left 2
WINDOW 123 0 0 Left 0
WINDOW 39 -58 185 Left 2
SYMATTR Value PULSE(-3 15 {T_dly6} 10n 10n {T_on} {T_cyc})
SYMATTR SpiceLine Rser=1m Cpar=1u
SYMATTR InstName V12
SYMBOL res 672 96 R90
WINDOW 0 0 56 VBottom 2
WINDOW 3 32 56 VTop 2
SYMATTR InstName R6
SYMATTR Value 10
SYMBOL voltage 928 80 R0
WINDOW 123 0 0 Left 0
WINDOW 39 0 0 Left 0
SYMATTR InstName V13
SYMATTR Value 25
TEXT 1176 -144 Left 2 !.tran 0 {T_stop} {T_start} 100n startup uic
TEXT -896 848 Left 2 !.lib C:\\Users\\prakash tandi\\OneDrive - iitr.ac.in\\Documents\\LTspiceXVII\\lib\\C3M0025065D.lib
TEXT 1176 -200 Left 2 !.FOUR 1000 V(n013, n025)
TEXT -416 -72 Left 2 ;A
TEXT 208 -80 Left 2 ;B
TEXT 896 -128 Left 2 ;C
TEXT 368 792 Left 2 ;n
TEXT 1200 -88 Left 2 !.param T_dly = 1u
TEXT 1208 -40 Left 2 !.param T_dly1 = ({T_dly} + {T_dt})
TEXT 1208 8 Left 2 !.param T_dly2 = ({T_dly} + ((3/6)*{T_cyc}) + 2*{T_dt})
TEXT 1208 64 Left 2 !.param T_on = ({T_cyc}*0.5 - {T_dt})
TEXT 1216 120 Left 2 !.param T_cyc = 1/1000
TEXT 1216 184 Left 2 !.param T_dt = 120n
TEXT 1224 240 Left 2 !.param T_stop = 10m
TEXT 1232 304 Left 2 !.param T_start = ({T_cyc})
TEXT 1208 360 Left 2 !.param T_dly3 = ({T_dly} + ((2/6)*{T_cyc}) + 2*{T_dt})
TEXT 1216 408 Left 2 !.param T_dly4 = ({T_dly} + ((5/6)*{T_cyc}) + 2*{T_dt})
TEXT 1208 456 Left 2 !.param T_dly5 = ({T_dly} + ((4/6)*{T_cyc}) + 2*{T_dt})
TEXT 1208 512 Left 2 !.param T_dly6 = ({T_dly} + ((1/6)*{T_cyc}) + 2*{T_dt})
